@<TRIPOS>MOLECULE
3HA8 - minimized - ligand
87   93    1
SMALL
USER_CHARGES


@<TRIPOS>ATOM
      1 C4        -16.1355    9.7612   23.2404 C.3       1 5JZ         0.0714 
      2 C5         -9.8125   18.8933   13.9347 C.ar      1 5JZ        -0.1391 
      3 C6         -9.7630   17.9422   14.9463 C.ar      1 5JZ        -0.1122 
      4 C7         -9.2513   18.6153   12.6917 C.ar      1 5JZ        -0.1129 
      5 C8         -9.1597   16.7120   14.7129 C.ar      1 5JZ        -0.1366 
      6 C10        -9.7180   13.7585   14.2484 C.ar      1 5JZ        -0.0559 
      7 C13       -13.3496    8.1661   17.4893 C.ar      1 5JZ        -0.0768 
      8 C15       -13.2043   12.3397   16.7378 C.ar      1 5JZ         0.0392 
      9 C17        -7.9435   17.0823   11.1316 C.3       1 5JZ        -0.0783 
     10 C20       -13.6426    7.5259   19.9237 C.3       1 5JZ        -0.1088 
     11 C21       -12.8975    7.4382   18.5948 C.ar      1 5JZ        -0.1219 
     12 C22       -10.8036   14.1830   13.4659 C.ar      1 5JZ        -0.1483 
     13 C24       -11.2583   12.8485   15.8518 C.ar      1 5JZ         0.1343 
     14 C26       -11.4434    7.4343   16.2152 C.ar      1 5JZ         0.1636 
     15 C28       -12.3540   13.3005   15.0693 C.ar      1 5JZ         0.2453 
     16 C32        -6.0223   11.8466   18.7435 C.3       1 5JZ        -0.2240 
     17 C2        -10.4042    7.8256   12.7918 C.3       1 5JZ        -0.2161 
     18 C3        -10.2652    9.6896   14.5448 C.3       1 5JZ        -0.2161 
     19 C9        -11.7237    6.6845   18.4903 C.ar      1 5JZ        -0.0841 
     20 C14       -12.1236   13.9699   13.8615 C.ar      1 5JZ        -0.2581 
     21 C12       -10.9978    6.6802   17.2995 C.ar      1 5JZ        -0.1464 
     22 C11        -9.9346   13.0743   15.4509 C.ar      1 5JZ        -0.2685 
     23 C16        -6.6017   16.4088   11.4607 C.3       1 5JZ        -0.1587 
     24 C18        -6.7715   15.1049   12.2799 C.3       1 5JZ        -0.0086 
     25 C19       -13.0498    8.9625   15.0703 C.3       1 5JZ         0.2071 
     26 C1         -7.0718   10.9792   18.0461 C.3       1 5JZ         0.2007 
     27 C23        -8.6405   17.3808   12.4441 C.ar      1 5JZ        -0.0999 
     28 C25        -8.6304   16.3932   13.4479 C.ar      1 5JZ         0.0271 
     29 C27       -12.6213    8.1853   16.2975 C.ar      1 5JZ        -0.1893 
     30 C30       -11.3756   10.1038   19.8280 C.ar      1 5JZ         0.5921 
     31 C31       -11.2156   11.4806   17.9917 C.ar      1 5JZ         0.4825 
     32 C29        -9.3212   10.6288   18.9707 C.ar      1 5JZ         0.5713 
     33 C36       -13.5182    8.9390   20.5572 C.3       1 5JZ         0.0866 
     34 C33        -8.2902   13.9759   13.7850 C.2       1 5JZ         0.4433 
     35 C34       -14.1953    8.9700   21.9470 C.2       1 5JZ         0.5129 
     36 C35       -10.9344    8.3789   14.1050 C.3       1 5JZ         0.2402 
     37 N37       -13.5462   12.9802   15.6516 N.2       1 5JZ        -0.3799 
     38 N40       -12.0197   10.8561   18.8944 N.ar      1 5JZ        -0.5398 
     39 N38       -10.0284    9.9678   19.9214 N.ar      1 5JZ        -0.4955 
     40 N39        -9.8589   11.4040   17.9917 N.ar      1 5JZ        -0.5858 
     41 N41       -15.3758    9.6075   22.0085 N.am      1 5JZ        -0.5892 
     42 N42       -12.1377    9.3559   20.7350 N.pl3     1 5JZ        -0.5373 
     43 N43       -11.8423   12.1953   16.9350 N.pl3     1 5JZ        -0.0516 
     44 N44        -7.9248   15.1715   13.2238 N.am      1 5JZ        -0.1936 
     45 O46        -7.5200   13.0117   13.8527 O.2       1 5JZ        -0.5112 
     46 O47       -13.6570    8.4328   22.9193 O.2       1 5JZ        -0.4963 
     47 O48       -12.3224    8.5538   13.9069 O.3       1 5JZ        -0.3556 
     48 O49       -10.6840    7.3718   15.0621 O.3       1 5JZ        -0.2807 
     49 O45        -7.9527   10.4416   19.0393 O.3       1 5JZ        -0.3195 
     50 H4_1      -17.0523   10.3172   23.0444 H         1 5JZ         0.0737 
     51 H4_2      -16.4081    8.7893   23.6539 H         1 5JZ         0.0737 
     52 H4_3      -15.5587   10.3082   23.9876 H         1 5JZ         0.0737 
     53 HC5       -10.2784   19.8458   14.1218 H         1 5JZ         0.1325 
     54 HC6       -10.1666   18.1607   15.9218 H         1 5JZ         0.1347 
     55 HC7        -9.2802   19.3689   11.9177 H         1 5JZ         0.1313 
     56 HC8        -9.0990   16.0138   15.5354 H         1 5JZ         0.1391 
     57 HC13      -14.2558    8.7482   17.5685 H         1 5JZ         0.1274 
     58 HC15      -13.8973   11.9023   17.4428 H         1 5JZ         0.1871 
     59 H171       -8.5603   16.4190   10.5255 H         1 5JZ         0.0784 
     60 H172       -7.7934   17.9960   10.5595 H         1 5JZ         0.0784 
     61 H201      -13.2569    6.7640   20.6055 H         1 5JZ         0.0761 
     62 H202      -14.6883    7.2659   19.7544 H         1 5JZ         0.0761 
     63 HC22      -10.6263   14.6816   12.5232 H         1 5JZ         0.1616 
     64 H321       -5.3315   12.2822   18.0216 H         1 5JZ         0.0791 
     65 H322       -6.4929   12.6636   19.2910 H         1 5JZ         0.0791 
     66 H323       -5.4409   11.2618   19.4576 H         1 5JZ         0.0791 
     67 H2_1      -10.9355    6.9141   12.5159 H         1 5JZ         0.0829 
     68 H2_2      -10.5188    8.5582   11.9939 H         1 5JZ         0.0829 
     69 H2_3       -9.3448    7.5974   12.8951 H         1 5JZ         0.0829 
     70 H3_1      -10.5215    9.9418   15.5726 H         1 5JZ         0.0829 
     71 H3_2       -9.1809    9.5922   14.4842 H         1 5JZ         0.0829 
     72 H3_3      -10.5832   10.5041   13.8937 H         1 5JZ         0.0829 
     73 HC9       -11.3604    6.1164   19.3344 H         1 5JZ         0.1437 
     74 HC14      -12.9455   14.3040   13.2456 H         1 5JZ         0.1951 
     75 HC12      -10.0924    6.0950   17.2186 H         1 5JZ         0.1510 
     76 HC11       -9.0939   12.7346   16.0360 H         1 5JZ         0.2079 
     77 H161       -5.9880   17.1072   12.0321 H         1 5JZ         0.0778 
     78 H162       -6.0329   16.2033   10.5526 H         1 5JZ         0.0778 
     79 H181       -5.8641   14.8178   12.8124 H         1 5JZ         0.0982 
     80 H182       -6.9441   14.2693   11.5974 H         1 5JZ         0.0982 
     81 H191      -12.8749   10.0244   15.2345 H         1 5JZ         0.0591 
     82 H192      -14.1171    8.8384   14.8912 H         1 5JZ         0.0591 
     83 H1_1       -6.5788   10.1427   17.5484 H         1 5JZ         0.0525 
     84 H1_2       -7.5453   11.5570   17.2530 H         1 5JZ         0.0525 
     85 HC36      -14.0418    9.6493   19.9134 H         1 5JZ         0.1261 
     86 HN41      -15.7655   10.0187   21.1720 H         1 5JZ         0.2999 
     87 HN42      -11.5883    8.7524   21.3296 H         1 5JZ         0.3012 
@<TRIPOS>BOND
     1    1   41 1    
     2    1   50 1    
     3    1   51 1    
     4    1   52 1    
     5    2    3 ar   
     6    2    4 ar   
     7    2   53 1    
     8    3    5 ar   
     9    3   54 1    
    10    4   27 ar   
    11    4   55 1    
    12    5   28 ar   
    13    5   56 1    
    14    6   12 ar   
    15    6   22 ar   
    16    6   34 1    
    17    7   11 ar   
    18    7   29 ar   
    19    7   57 1    
    20    8   37 ar   
    21    8   43 ar   
    22    8   58 1    
    23    9   23 1    
    24    9   27 1    
    25    9   59 1    
    26    9   60 1    
    27   10   11 1    
    28   10   33 1    
    29   10   61 1    
    30   10   62 1    
    31   11   19 ar   
    32   12   20 ar   
    33   12   63 1    
    34   13   15 ar   
    35   13   22 ar   
    36   13   43 ar   
    37   14   21 ar   
    38   14   29 ar   
    39   14   48 1    
    40   15   20 ar   
    41   15   37 ar   
    42   16   26 1    
    43   16   64 1    
    44   16   65 1    
    45   16   66 1    
    46   17   36 1    
    47   17   67 1    
    48   17   68 1    
    49   17   69 1    
    50   18   36 1    
    51   18   70 1    
    52   18   71 1    
    53   18   72 1    
    54   19   21 ar   
    55   19   73 1    
    56   20   74 1    
    57   21   75 1    
    58   22   76 1    
    59   23   24 1    
    60   23   77 1    
    61   23   78 1    
    62   24   44 1    
    63   24   79 1    
    64   24   80 1    
    65   25   29 1    
    66   25   47 1    
    67   25   81 1    
    68   25   82 1    
    69   26   49 1    
    70   26   83 1    
    71   26   84 1    
    72   27   28 ar   
    73   28   44 1    
    74   30   38 ar   
    75   30   39 ar   
    76   30   42 1    
    77   31   38 ar   
    78   31   40 ar   
    79   31   43 1    
    80   32   39 ar   
    81   32   40 ar   
    82   32   49 1    
    83   33   35 1    
    84   33   42 1    
    85   33   85 1    
    86   34   44 am   BACKBONE|DICT|INTERRES
    87   34   45 2    
    88   35   41 am   BACKBONE|DICT|INTERRES
    89   35   46 2    
    90   36   47 1    
    91   36   48 1    
    92   41   86 1    
    93   42   87 1    
@<TRIPOS>SUBSTRUCTURE
     1 5JZ         1 GROUP             0 A     ****    0 ROOT    
