REMARK  Name = 3HA8 - minimized - ligand
REMARK  11 active torsions:
REMARK  status: ('A' for Active; 'I' for Inactive)
REMARK    1  A    between atoms: C4_1  and  N41_41
REMARK    2  A    between atoms: C10_6  and  C33_34
REMARK    3  A    between atoms: C20_10  and  C21_11
REMARK    4  A    between atoms: C20_10  and  C36_33
REMARK    5  A    between atoms: C32_16  and  C1_26
REMARK    6  A    between atoms: C2_17  and  C35_36
REMARK    7  A    between atoms: C3_18  and  C35_36
REMARK    8  A    between atoms: C1_26  and  O45_49
REMARK    9  A    between atoms: C29_32  and  O45_49
REMARK   10  A    between atoms: C36_33  and  C34_35
REMARK   11  A    between atoms: C36_33  and  N42_42
REMARK                            x       y       z     vdW  Elec       q    Type
REMARK                         _______ _______ _______ _____ _____    ______ ____
ROOT
ATOM      1  C10 5JZ A   1      -9.718  13.758  14.248  0.00  0.00    -0.056 A 
ATOM      2  C15 5JZ A   1     -13.204  12.340  16.738  0.00  0.00    +0.226 A 
ATOM      3  C22 5JZ A   1     -10.804  14.183  13.466  0.00  0.00    +0.013 A 
ATOM      4  C24 5JZ A   1     -11.258  12.848  15.852  0.00  0.00    +0.134 A 
ATOM      5  C28 5JZ A   1     -12.354  13.300  15.069  0.00  0.00    +0.245 A 
ATOM      6  C14 5JZ A   1     -12.124  13.970  13.861  0.00  0.00    -0.063 A 
ATOM      7  C11 5JZ A   1      -9.935  13.074  15.451  0.00  0.00    -0.061 A 
ATOM      8  C30 5JZ A   1     -11.376  10.104  19.828  0.00  0.00    +0.592 A 
ATOM      9  C31 5JZ A   1     -11.216  11.481  17.992  0.00  0.00    +0.482 A 
ATOM     10  C29 5JZ A   1      -9.321  10.629  18.971  0.00  0.00    +0.571 A 
ATOM     11  N37 5JZ A   1     -13.546  12.980  15.652  0.00  0.00    -0.380 NA
ATOM     12  N40 5JZ A   1     -12.020  10.856  18.894  0.00  0.00    -0.540 NA
ATOM     13  N38 5JZ A   1     -10.028   9.968  19.921  0.00  0.00    -0.495 NA
ATOM     14  N39 5JZ A   1      -9.859  11.404  17.992  0.00  0.00    -0.586 NA
ATOM     15  N42 5JZ A   1     -12.138   9.356  20.735  0.00  0.00    -0.537 N 
ATOM     16  N43 5JZ A   1     -11.842  12.195  16.935  0.00  0.00    -0.052 N 
ATOM     17 HN42 5JZ A   1     -11.588   8.752  21.330  0.00  0.00    +0.301 HD
ENDROOT
BRANCH   1  27
ATOM     18  C5  5JZ A   1      -9.812  18.893  13.935  0.00  0.00    -0.007 A 
ATOM     19  C6  5JZ A   1      -9.763  17.942  14.946  0.00  0.00    +0.022 A 
ATOM     20  C7  5JZ A   1      -9.251  18.615  12.692  0.00  0.00    +0.018 A 
ATOM     21  C8  5JZ A   1      -9.160  16.712  14.713  0.00  0.00    +0.003 A 
ATOM     22  C17 5JZ A   1      -7.944  17.082  11.132  0.00  0.00    +0.079 C 
ATOM     23  C16 5JZ A   1      -6.602  16.409  11.461  0.00  0.00    -0.003 C 
ATOM     24  C18 5JZ A   1      -6.771  15.105  12.280  0.00  0.00    +0.188 C 
ATOM     25  C23 5JZ A   1      -8.640  17.381  12.444  0.00  0.00    -0.100 A 
ATOM     26  C25 5JZ A   1      -8.630  16.393  13.448  0.00  0.00    +0.027 A 
ATOM     27  C33 5JZ A   1      -8.290  13.976  13.785  0.00  0.00    +0.443 C 
ATOM     28  N44 5JZ A   1      -7.925  15.171  13.224  0.00  0.00    -0.194 N 
ATOM     29  O46 5JZ A   1      -7.520  13.012  13.853  0.00  0.00    -0.511 OA
ENDBRANCH   1  27
BRANCH  15  30
ATOM     30  C36 5JZ A   1     -13.518   8.939  20.557  0.00  0.00    +0.213 C 
BRANCH  30  32
ATOM     31  C4  5JZ A   1     -16.136   9.761  23.240  0.00  0.00    +0.292 C 
ATOM     32  C34 5JZ A   1     -14.195   8.970  21.947  0.00  0.00    +0.513 C 
ATOM     33  N41 5JZ A   1     -15.376   9.607  22.009  0.00  0.00    -0.589 N 
ATOM     34  O47 5JZ A   1     -13.657   8.433  22.919  0.00  0.00    -0.496 OA
ATOM     35 HN41 5JZ A   1     -15.765  10.019  21.172  0.00  0.00    +0.300 HD
ENDBRANCH  30  32
BRANCH  30  36
ATOM     36  C20 5JZ A   1     -13.643   7.526  19.924  0.00  0.00    +0.043 C 
BRANCH  36  38
ATOM     37  C13 5JZ A   1     -13.350   8.166  17.489  0.00  0.00    +0.051 A 
ATOM     38  C21 5JZ A   1     -12.898   7.438  18.595  0.00  0.00    -0.122 A 
ATOM     39  C26 5JZ A   1     -11.443   7.434  16.215  0.00  0.00    +0.164 A 
ATOM     40  C2  5JZ A   1     -10.404   7.826  12.792  0.00  0.00    +0.033 C 
ATOM     41  C3  5JZ A   1     -10.265   9.690  14.545  0.00  0.00    +0.033 C 
ATOM     42  C9  5JZ A   1     -11.724   6.684  18.490  0.00  0.00    +0.060 A 
ATOM     43  C12 5JZ A   1     -10.998   6.680  17.299  0.00  0.00    +0.005 A 
ATOM     44  C19 5JZ A   1     -13.050   8.963  15.070  0.00  0.00    +0.325 C 
ATOM     45  C27 5JZ A   1     -12.621   8.185  16.297  0.00  0.00    -0.189 A 
ATOM     46  C35 5JZ A   1     -10.934   8.379  14.105  0.00  0.00    +0.240 C 
ATOM     47  O48 5JZ A   1     -12.322   8.554  13.907  0.00  0.00    -0.356 OA
ATOM     48  O49 5JZ A   1     -10.684   7.372  15.062  0.00  0.00    -0.281 OA
ENDBRANCH  36  38
ENDBRANCH  30  36
ENDBRANCH  15  30
BRANCH  10  49
ATOM     49  O45 5JZ A   1      -7.953  10.442  19.039  0.00  0.00    -0.320 OA
BRANCH  49  51
ATOM     50  C32 5JZ A   1      -6.022  11.847  18.744  0.00  0.00    +0.013 C 
ATOM     51  C1  5JZ A   1      -7.072  10.979  18.046  0.00  0.00    +0.306 C 
ENDBRANCH  49  51
ENDBRANCH  10  49
TORSDOF 7
